[TITLE]
;;Project Title/Notes

[OPTIONS]
;;Option             Value
FLOW_UNITS           CMS
INFILTRATION         HORTON
FLOW_ROUTING         DYNWAVE
LINK_OFFSETS         DEPTH
MIN_SLOPE            0
ALLOW_PONDING        YES
SKIP_STEADY_STATE    NO

START_DATE           02/08/2020
START_TIME           00:00:00
REPORT_START_DATE    02/08/2020
REPORT_START_TIME    00:00:00
END_DATE             02/12/2020
END_TIME             00:00:00
SWEEP_START          02/01
SWEEP_END            02/28
DRY_DAYS             0
REPORT_STEP          00:15:00
WET_STEP             00:00:15
DRY_STEP             01:00:00
ROUTING_STEP         00:00:08

INERTIAL_DAMPING     PARTIAL
NORMAL_FLOW_LIMITED  BOTH
FORCE_MAIN_EQUATION  H-W
VARIABLE_STEP        0.75
LENGTHENING_STEP     0
MIN_SURFAREA         1.167
MAX_TRIALS           16
HEAD_TOLERANCE       0.000015
SYS_FLOW_TOL         2
LAT_FLOW_TOL         2
MINIMUM_STEP         0.05
THREADS              2

[EVAPORATION]
;;Data Source    Parameters
;;-------------- ----------------
CONSTANT         0.0
DRY_ONLY         NO

[RAINGAGES]
;;Name           Format    Interval SCF      Source    
;;-------------- --------- ------ ------ ----------
R_01             VOLUME    0:05     1.0      TIMESERIES Rain_01         
R_02             VOLUME    0:05     1.0      TIMESERIES Rain_02         

[SUBCATCHMENTS]
;;Name           Rain Gage        Outlet           Area     %Imperv  Width    %Slope   CurbLen  SnowPack        
;;-------------- ---------------- ---------------- -------- -------- -------- -------- -------- ----------------
sub_1a           R_01             j_1              66.993700 71.584891 343.153908 0.000000 0.000000                 
sub_21a          R_02             j_21             8.657500 81.892001 166.005055 0.000000 0.000000                 
sub_10a          R_01             j_10             57.906900 88.649135 495.417890 0.000000 0.000000                 
sub_2a           R_02             j_2              115.450400 88.771521 592.937216 0.000000 0.000000                 
sub_2b           R_02             j_2              7.691600 35.987311 156.470838 0.000000 0.000000                 
sub_2c           R_02             j_2              9.295300 78.214797 172.011217 0.000000 0.000000                 
sub_21b          R_02             j_21             3.047000 99.826058 98.483005 0.000000 0.000000                 
sub_21c          R_02             j_21             1.687400 11.864407 73.288205 0.000000 0.000000                 
sub_2d           R_02             j_2              13.378600 74.554139 206.362318 0.000000 0.000000                 
sub_2e           R_02             j_2              12.389800 72.167428 198.589925 0.000000 0.000000                 
sub_2f           R_02             j_2              3.805800 96.103600 105.637626 0.000000 0.000000                 
sub_20a          R_02             j_20             20.081800 82.026664 249.725121 0.000000 0.000000                 

[SUBAREAS]
;;Subcatchment   N-Imperv   N-Perv     S-Imperv   S-Perv     PctZero    RouteTo    PctRouted 
;;-------------- ---------- ---------- ---------- ---------- ---------- ---------- ----------
sub_1a           0.000000   0.000000   0.966719   0.500000   15.398442  OUTLET    
sub_21a          0.000000   0.000000   0.669694   0.500000   29.892240  OUTLET    
sub_10a          0.000000   0.000000   1.030123   0.500000   6.182320   OUTLET    
sub_2a           0.000000   0.000000   0.905578   0.500000   8.450002   OUTLET    
sub_2b           0.000000   0.000000   0.758815   0.500000   0.000000   OUTLET    
sub_2c           0.000000   0.000000   1.298337   0.500000   8.012049   OUTLET    
sub_21b          0.000000   0.000000   1.058060   0.500000   1.614229   OUTLET    
sub_21c          0.000000   0.000000   0.500000   0.500000   0.000000   OUTLET    
sub_2d           0.000000   0.000000   1.419202   0.500000   2.100398   OUTLET    
sub_2e           0.000000   0.000000   1.234812   0.500000   11.133603  OUTLET    
sub_2f           0.000000   0.000000   0.810534   0.500000   27.424908  OUTLET    
sub_20a          0.000000   0.000000   0.660154   0.500000   8.681746   OUTLET    

[INFILTRATION]
;;Subcatchment   Param1     Param2     Param3     Param4     Param5    
;;-------------- ---------- ---------- ---------- ---------- ----------
sub_1a           2.000000   0.500000   3.000000   1.630010   0.000000  
sub_21a          2.000000   0.500000   3.000000   1.630010   0.000000  
sub_10a          2.000000   0.500000   3.000000   1.630010   0.000000  
sub_2a           2.000000   0.500000   3.000000   1.630010   0.000000  
sub_2b           2.000000   0.500000   3.000000   1.630010   0.000000  
sub_2c           2.000000   0.500000   3.000000   1.630010   0.000000  
sub_21b          2.000000   0.500000   3.000000   1.630010   0.000000  
sub_21c          2.000000   0.500000   3.000000   1.630010   0.000000  
sub_2d           2.000000   0.500000   3.000000   1.630010   0.000000  
sub_2e           2.000000   0.500000   3.000000   1.630010   0.000000  
sub_2f           2.000000   0.500000   3.000000   1.630010   0.000000  
sub_20a          2.000000   0.500000   3.000000   1.630010   0.000000  

[OUTFALLS]
;;Name           Elevation  Type       Stage Data       Gated    Route To        
;;-------------- ---------- ---------- ---------------- -------- ----------------
cso_1            8.91       FREE                        NO                       
cso_20           8.3        FREE                        NO                       
cso_2a           8.3        FREE                        NO                       
cso_21a          8.93       FREE                        NO                       
cso_10           8.31       FREE                        NO                       
Wastewater_Treatment_Plant 9.11       FREE                        NO                       
cso_21b          9.12       FREE                        NO                       
cso_2b           9.12       FREE                        NO                       

[STORAGE]
;;Name           Elev.    MaxDepth   InitDepth  Shape      Curve Type/Params            SurDepth  Fevap    Psi      Ksat     IMD     
;;-------------- -------- ---------- ----------- ---------- ---------------------------- --------- --------          -------- --------
j_1              9.07     4.990000   0.000000   TABULAR    curve_1                      0         0       
j_21             10.01     6.110000   0.000000   TABULAR    curve_21                     0         0       
j_10             8.41     4.710000   0.000000   TABULAR    curve_10                     0         0       
j_2              7.79     8.330000   0.000000   TABULAR    curve_2                      0         0       
j_20             8.89     6.500000   0.000000   TABULAR    curve_20                     0         0       

[PUMPS]
;;Name           From Node        To Node          Pump Curve       Status   Sartup Shutoff 
;;-------------- ---------------- ---------------- ---------------- ------ -------- --------
p_20_2           j_20             j_2              curve_20_2       ON       0        0       
WWTP_inlet       j_1              Wastewater_Treatment_Plant curve_wwtp       ON       0        0       
p_21_2           j_21             j_2              curve_21_2       ON       0        0       
CSO_Pump_21      j_21             cso_21b          curve_21_cso     ON       0        0       
p10_1            j_10             j_1              curve_10_1       ON       0        0       
p_2_1            j_2              j_1              curve_2_1        ON       0        0       
CSO_Pump_2       j_2              cso_2b           curve_2_cso      ON       0        0       

[WEIRS]
;;Name           From Node        To Node          Type         CrestHt    Qcoeff     Gated    EndCon   EndCoeff   Surcharge  RoadWidth  RoadSurf   Coeff. Curve
;;-------------- ---------------- ---------------- ------------ ---------- ---------- -------- -------- ---------- ---------- ---------- ---------- ----------------
cso_weir_1       j_1              cso_1            TRANSVERSE   1.830000   1.346570   NO       0.000000 0.000000   YES       
cso_weir_20      j_20             cso_20           TRANSVERSE   1.900000   1.346570   NO       0.000000 0.000000   YES       
cso_weir_2       j_2              cso_2a           TRANSVERSE   2.480000   1.346570   NO       0.000000 0.000000   YES       
cso_weir_21      j_21             cso_21a          TRANSVERSE   2.160000   1.346570   NO       0.000000 0.000000   YES       
cso_weir_10      j_10             cso_10           TRANSVERSE   2.210000   1.346570   NO       0.000000 0.000000   YES       

[XSECTIONS]
;;Link           Shape        Geom1            Geom2      Geom3      Geom4      Barrels    Culvert   
;;-------------- ------------ ---------------- ---------- ---------- ---------- ---------- ----------
cso_weir_1       RECT_OPEN    2.000000         17.00000   0.000000   0.000000  
cso_weir_20      RECT_OPEN    2.000000         9.500000   0.000000   0.000000  
cso_weir_2       RECT_OPEN    2.000000         21.80000   0.000000   0.000000  
cso_weir_21      RECT_OPEN    2.000000         11.25000   0.000000   0.000000  
cso_weir_10      RECT_OPEN    2.000000         19.80000   0.000000   0.000000  

[DWF]
;;Node           Constituent      Baseline   Patterns  
;;-------------- ---------------- ---------- ----------
j_1              FLOW             0.0071     "HOURLY_DWF_PATTERN"
j_21             FLOW             0.0017     "HOURLY_DWF_PATTERN"
j_10             FLOW             0.0005     "HOURLY_DWF_PATTERN"
j_2              FLOW             0.0100     "HOURLY_DWF_PATTERN"
j_20             FLOW             0.0047     "HOURLY_DWF_PATTERN"


[CURVES]
;;Name           Type       X-Value    Y-Value   
;;-------------- ---------- ---------- ----------
curve_20_2       Pump2      0.000000   0.015000  
;
curve_wwtp       Pump4      0.000000   0.000000  
curve_wwtp                  0.100000   0.333333  
curve_wwtp                  1.030000   0.333333  
curve_wwtp                  1.430000   0.750000  
curve_wwtp                  1.830000   1.166667  
curve_wwtp                  10.000000  1.166667  
;
curve_21_2       Pump4      0.000000   0.000000  
curve_21_2                  0.100000   0.025000  
curve_21_2                  0.650000   0.025000  
curve_21_2                  0.775000   0.033333  
curve_21_2                  0.900000   0.041667  
curve_21_2                  10.000000  0.041667  
;
curve_21_cso     Pump4      0.000000   0.000000  
curve_21_cso                0.100000   0.027778  
curve_21_cso                0.200000   0.027778  
curve_21_cso                0.250000   0.027778  
curve_21_cso                0.300000   0.027778  
curve_21_cso                10.000000  0.027778  
;
curve_10_1       Pump4      0.000000   0.000000  
curve_10_1                  0.100000   0.272223  
curve_10_1                  1.260000   0.272223  
curve_10_1                  1.365000   0.288889  
curve_10_1                  1.470000   0.305556  
curve_10_1                  1.740000   0.305556  
curve_10_1                  1.770000   0.500000  
curve_10_1                  1.800000   0.694444  
curve_10_1                  10.000000  0.694444  
;
curve_2_1        Pump4      0.000000   0.000000  
curve_2_1                   0.100000   0.333333  
curve_2_1                   1.050000   0.333333  
curve_2_1                   1.100000   0.333333  
curve_2_1                   1.150000   0.333333  
curve_2_1                   1.250000   0.333333  
curve_2_1                   1.700000   0.416667  
curve_2_1                   2.150000   0.500000  
curve_2_1                   10.000000  0.500000  
;
curve_2_cso      Pump4      0.000000   0.000000  
curve_2_cso                 0.100000   0.500000  
curve_2_cso                 1.350000   0.500000  
curve_2_cso                 1.475000   0.527778  
curve_2_cso                 1.600000   0.555556  
curve_2_cso                 10.000000  0.555556  
;
curve_1          Storage    0.000000   9.572356  
curve_1                     0.010000   35.492722 
curve_1                     0.020000   42.116382 
curve_1                     0.030000   46.845662 
curve_1                     0.040000   50.953666 
curve_1                     0.050000   54.756781 
curve_1                     0.060000   60.223717 
curve_1                     0.070000   224.361632
curve_1                     0.080000   240.975396
curve_1                     0.090000   265.557598
curve_1                     0.100000   278.382578
curve_1                     0.110000   347.787941
curve_1                     0.120000   359.209234
curve_1                     0.130000   369.912724
curve_1                     0.140000   380.005121
curve_1                     0.150000   389.565032
curve_1                     0.160000   398.650647
curve_1                     0.170000   407.307056
curve_1                     0.180000   415.570688
curve_1                     0.190000   423.471586
curve_1                     0.200000   431.085404
curve_1                     0.210000   439.670163
curve_1                     0.220000   447.226089
curve_1                     0.230000   454.347786
curve_1                     0.240000   658.217309
curve_1                     0.250000   667.598146
curve_1                     0.260000   675.904831
curve_1                     0.270000   683.859223
curve_1                     0.280000   692.185666
curve_1                     0.290000   712.592034
curve_1                     0.300000   752.672985
curve_1                     0.310000   766.756755
curve_1                     0.320000   778.683615
curve_1                     0.330000   789.978172
curve_1                     0.340000   820.513864
curve_1                     0.350000   841.767615
curve_1                     0.360000   860.357141
curve_1                     0.370000   876.103311
curve_1                     0.380000   890.668895
curve_1                     0.390000   904.458926
curve_1                     0.400000   917.658745
curve_1                     0.410000   934.617793
curve_1                     0.420000   1113.056906
curve_1                     0.430000   1323.211729
curve_1                     0.440000   1344.418193
curve_1                     0.450000   1363.578484
curve_1                     0.460000   1436.754372
curve_1                     0.470000   1454.929070
curve_1                     0.480000   1471.360785
curve_1                     0.490000   1487.291442
curve_1                     0.500000   1501.631751
curve_1                     0.510000   1515.320814
curve_1                     0.520000   1529.240965
curve_1                     0.530000   1544.453127
curve_1                     0.540000   1560.035047
curve_1                     0.550000   1577.969468
curve_1                     0.560000   1596.051885
curve_1                     0.570000   1612.174626
curve_1                     0.580000   1656.469463
curve_1                     0.590000   1681.484700
curve_1                     0.600000   1703.633595
curve_1                     0.610000   1723.712555
curve_1                     0.620000   1750.190065
curve_1                     0.630000   1768.074441
curve_1                     0.640000   1800.212310
curve_1                     0.650000   1827.872242
curve_1                     0.660000   1856.817473
curve_1                     0.670000   1874.730091
curve_1                     0.680000   1916.986315
curve_1                     0.690000   1932.321874
curve_1                     0.700000   1946.677545
curve_1                     0.710000   1965.720251
curve_1                     0.720000   1999.242029
curve_1                     0.730000   2018.041139
curve_1                     0.740000   2034.726240
curve_1                     0.750000   2051.076169
curve_1                     0.760000   2066.510772
curve_1                     0.770000   2083.426541
curve_1                     0.780000   2094.398132
curve_1                     0.790000   2115.897265
curve_1                     0.800000   2130.418749
curve_1                     0.810000   2165.541427
curve_1                     0.820000   2180.704059
curve_1                     0.830000   2194.745608
curve_1                     0.840000   2202.058659
curve_1                     0.850000   2216.479841
curve_1                     0.860000   2228.263025
curve_1                     0.870000   2301.655804
curve_1                     0.880000   2339.908977
curve_1                     0.890000   2410.351088
curve_1                     0.900000   2443.571902
curve_1                     0.910000   2474.019185
curve_1                     0.920000   2505.746968
curve_1                     0.930000   2526.900224
curve_1                     0.940000   2549.158217
curve_1                     0.950000   2574.269088
curve_1                     0.960000   2635.114429
curve_1                     0.970000   2657.838117
curve_1                     0.980000   2679.546436
curve_1                     0.990000   2693.929236
curve_1                     1.000000   2758.997895
curve_1                     1.010000   2793.706192
curve_1                     1.020000   2840.354872
curve_1                     1.030000   2854.103613
curve_1                     1.040000   2876.211267
curve_1                     1.050000   2950.200545
curve_1                     1.060000   2962.733360
curve_1                     1.070000   2963.091937
curve_1                     1.080000   2963.586780
curve_1                     1.090000   2944.734296
curve_1                     1.100000   2947.816555
curve_1                     1.110000   2947.119946
curve_1                     1.120000   2942.383628
curve_1                     1.130000   2931.490569
curve_1                     1.140000   2915.769209
curve_1                     1.150000   2895.340972
curve_1                     1.160000   2879.364179
curve_1                     1.170000   2865.200539
curve_1                     1.180000   2853.881682
curve_1                     1.190000   2831.937297
curve_1                     1.200000   2822.287859
curve_1                     1.210000   2837.350017
curve_1                     1.220000   2815.933795
curve_1                     1.230000   2786.265502
curve_1                     1.240000   2756.210322
curve_1                     1.250000   2730.090481
curve_1                     1.260000   2699.061960
curve_1                     1.270000   2667.390757
curve_1                     1.280000   2630.245129
curve_1                     1.290000   2584.438986
curve_1                     1.300000   2585.768342
curve_1                     1.310000   2631.705294
curve_1                     1.320000   2589.830615
curve_1                     1.330000   2589.941439
curve_1                     1.340000   2547.362328
curve_1                     1.350000   2495.463392
curve_1                     1.360000   2456.982010
curve_1                     1.370000   2419.827784
curve_1                     1.380000   2374.585976
curve_1                     1.390000   2323.999149
curve_1                     1.400000   2266.513339
curve_1                     1.410000   2211.823629
curve_1                     1.420000   2160.604271
curve_1                     1.430000   2109.240697
curve_1                     1.440000   2055.528707
curve_1                     1.450000   2000.466361
curve_1                     1.460000   1965.434150
curve_1                     1.470000   1909.312713
curve_1                     1.480000   1853.046943
curve_1                     1.490000   1805.781724
curve_1                     1.500000   1788.774378
curve_1                     1.510000   1741.948776
curve_1                     1.520000   1690.054598
curve_1                     1.530000   1637.386924
curve_1                     1.540000   1591.967625
curve_1                     1.550000   1545.896796
curve_1                     1.560000   1501.114115
curve_1                     1.570000   1457.852656
curve_1                     1.580000   1412.590576
curve_1                     1.590000   1358.379664
curve_1                     1.600000   1299.342906
curve_1                     1.610000   1270.085854
curve_1                     1.620000   1237.976214
curve_1                     1.630000   1201.024502
curve_1                     1.640000   1159.875588
curve_1                     1.650000   1127.776062
curve_1                     1.660000   1096.291120
curve_1                     1.670000   1063.369629
curve_1                     1.680000   1031.350194
curve_1                     1.690000   998.991073
curve_1                     1.700000   964.899866
curve_1                     1.710000   1180.547187
curve_1                     1.720000   1142.186528
curve_1                     1.730000   1104.839294
curve_1                     1.740000   1064.234342
curve_1                     1.750000   1022.526743
curve_1                     1.760000   981.737696
curve_1                     1.770000   945.769524
curve_1                     1.780000   916.383552
curve_1                     1.790000   889.915844
curve_1                     1.800000   864.475481
curve_1                     1.810000   839.186864
curve_1                     1.820000   813.621980
curve_1                     1.830000   787.309844
curve_1                     1.840000   763.355158
curve_1                     1.850000   741.594348
curve_1                     1.860000   722.774073
curve_1                     1.870000   705.705423
curve_1                     1.880000   699.613491
curve_1                     1.890000   685.815438
curve_1                     1.900000   673.311317
curve_1                     1.910000   660.031588
curve_1                     1.920000   648.330180
curve_1                     1.930000   637.837758
curve_1                     1.940000   628.089998
curve_1                     1.950000   617.166119
curve_1                     1.960000   605.390681
curve_1                     1.970000   592.791164
curve_1                     1.980000   583.652945
curve_1                     1.990000   574.223132
curve_1                     2.000000   565.026126
curve_1                     2.010000   555.574803
curve_1                     2.020000   546.791245
curve_1                     2.030000   537.556093
curve_1                     2.040000   527.828478
curve_1                     2.050000   517.422351
curve_1                     2.060000   506.974999
curve_1                     2.070000   495.431140
curve_1                     2.080000   481.603369
curve_1                     2.090000   468.956215
curve_1                     2.100000   461.174661
curve_1                     2.110000   456.019510
curve_1                     2.120000   450.799454
curve_1                     2.130000   445.531561
curve_1                     2.140000   440.346849
curve_1                     2.150000   435.283410
curve_1                     2.160000   430.387197
curve_1                     2.170000   425.646669
curve_1                     2.180000   423.564037
curve_1                     2.190000   420.575627
curve_1                     2.200000   417.110952
curve_1                     2.210000   413.577119
curve_1                     2.220000   411.157557
curve_1                     2.230000   408.515149
curve_1                     2.240000   406.592431
curve_1                     2.250000   404.708098
curve_1                     2.260000   402.143956
curve_1                     2.270000   399.566504
curve_1                     2.280000   396.986694
curve_1                     2.290000   394.619429
curve_1                     2.300000   392.858056
curve_1                     2.310000   390.956923
curve_1                     2.320000   389.174760
curve_1                     2.330000   387.666899
curve_1                     2.340000   386.176424
curve_1                     2.350000   384.807640
curve_1                     2.360000   383.674895
curve_1                     2.370000   382.762882
curve_1                     2.380000   382.075426
curve_1                     2.390000   381.662829
curve_1                     2.400000   381.624842
curve_1                     2.410000   381.648078
curve_1                     2.420000   381.162310
curve_1                     2.430000   380.368578
curve_1                     2.440000   381.536450
curve_1                     2.450000   382.772511
curve_1                     2.460000   385.644404
curve_1                     2.470000   386.738645
curve_1                     2.480000   387.312095
curve_1                     2.490000   387.745173
curve_1                     2.500000   388.384312
curve_1                     2.510000   389.153878
curve_1                     2.520000   390.014747
curve_1                     2.530000   390.962701
curve_1                     2.540000   392.001215
curve_1                     2.550000   392.955968
curve_1                     2.560000   393.613696
curve_1                     2.570000   394.106365
curve_1                     2.580000   394.487756
curve_1                     2.590000   394.786484
curve_1                     2.600000   395.058027
curve_1                     2.610000   395.345390
curve_1                     2.620000   395.681483
curve_1                     2.630000   396.080285
curve_1                     2.640000   393.363474
curve_1                     2.650000   393.961095
curve_1                     2.660000   389.492100
curve_1                     2.670000   390.137631
curve_1                     2.680000   390.778585
curve_1                     2.690000   388.353567
curve_1                     2.700000   388.988466
curve_1                     2.710000   384.501585
curve_1                     2.720000   385.118803
curve_1                     2.730000   385.691312
curve_1                     2.740000   379.398613
curve_1                     2.750000   379.185427
curve_1                     2.760000   379.498478
curve_1                     2.770000   379.047281
curve_1                     2.780000   366.290955
curve_1                     2.790000   361.495601
curve_1                     2.800000   361.244157
curve_1                     2.810000   307.478715
curve_1                     2.820000   298.830287
curve_1                     2.830000   288.420985
curve_1                     2.840000   287.393586
curve_1                     2.850000   282.288388
curve_1                     2.860000   231.682780
curve_1                     2.870000   226.608998
curve_1                     2.880000   224.553756
curve_1                     2.890000   218.642789
curve_1                     2.900000   215.898402
curve_1                     2.910000   199.800743
curve_1                     2.920000   189.373066
curve_1                     2.930000   184.934223
curve_1                     2.940000   180.482553
curve_1                     2.950000   116.513268
curve_1                     2.960000   112.101353
curve_1                     2.970000   107.748850
curve_1                     2.980000   103.467628
curve_1                     2.990000   98.629233 
curve_1                     3.000000   90.043926 
curve_1                     3.010000   86.037771 
curve_1                     3.020000   81.481580 
curve_1                     3.030000   77.538249 
curve_1                     3.040000   73.705689 
curve_1                     3.050000   71.002358 
curve_1                     3.060000   63.682433 
curve_1                     3.070000   62.162850 
curve_1                     3.080000   60.831267 
curve_1                     3.090000   59.050453 
curve_1                     3.100000   53.962082 
curve_1                     3.110000   50.969305 
curve_1                     3.120000   49.466504 
curve_1                     3.130000   47.586700 
curve_1                     3.140000   46.725949 
curve_1                     3.150000   41.960000 
curve_1                     3.160000   41.960000 
curve_1                     3.170000   41.320000 
curve_1                     3.180000   41.320000 
curve_1                     3.190000   41.320000 
curve_1                     3.200000   41.320000 
curve_1                     3.210000   40.040000 
curve_1                     3.220000   40.040000 
curve_1                     3.230000   39.400000 
curve_1                     3.240000   39.400000 
curve_1                     3.250000   38.760000 
curve_1                     3.260000   37.760000 
curve_1                     3.270000   37.760000 
curve_1                     3.280000   37.120000 
curve_1                     3.290000   37.120000 
curve_1                     3.300000   36.480000 
curve_1                     3.310000   33.280000 
curve_1                     3.320000   33.280000 
curve_1                     3.330000   33.280000 
curve_1                     3.340000   33.280000 
curve_1                     3.350000   33.280000 
curve_1                     3.360000   27.520000 
curve_1                     3.370000   27.520000 
curve_1                     3.380000   27.520000 
curve_1                     3.390000   27.520000 
curve_1                     3.400000   23.680000 
curve_1                     3.410000   23.680000 
curve_1                     3.420000   23.680000 
curve_1                     3.430000   23.680000 
curve_1                     3.440000   23.680000 
curve_1                     3.450000   23.680000 
curve_1                     3.460000   17.920000 
curve_1                     3.470000   17.920000 
curve_1                     3.480000   17.920000 
curve_1                     3.490000   17.920000 
curve_1                     3.500000   17.920000 
curve_1                     3.510000   16.000000 
curve_1                     3.520000   16.000000 
curve_1                     3.530000   16.000000 
curve_1                     3.540000   16.000000 
curve_1                     3.550000   16.000000 
curve_1                     3.560000   13.440000 